Version 4
SHEET 1 1624 784
WIRE -912 -96 -912 -128
WIRE 640 -96 480 -96
WIRE 864 -96 704 -96
WIRE -48 16 -256 16
WIRE 128 16 32 16
WIRE 176 16 128 16
WIRE 320 16 256 16
WIRE 480 16 480 -96
WIRE 480 16 320 16
WIRE 624 16 480 16
WIRE 864 16 864 -96
WIRE 864 16 752 16
WIRE 1008 16 864 16
WIRE 1184 16 1008 16
WIRE 1264 16 1184 16
WIRE 1328 16 1264 16
WIRE -256 112 -256 16
WIRE 128 112 128 16
WIRE 320 112 320 16
WIRE 480 112 480 16
WIRE 864 112 864 16
WIRE 1008 112 1008 16
WIRE 1184 112 1184 16
WIRE 1264 112 1264 16
WIRE 1328 160 1328 16
WIRE -496 208 -688 208
WIRE -256 208 -256 176
WIRE -256 208 -416 208
WIRE -688 240 -688 208
WIRE -688 352 -688 320
WIRE 128 352 128 176
WIRE 128 352 -688 352
WIRE 320 352 320 176
WIRE 320 352 128 352
WIRE 480 352 480 176
WIRE 480 352 320 352
WIRE 688 352 688 64
WIRE 688 352 480 352
WIRE 864 352 864 176
WIRE 864 352 688 352
WIRE 1008 352 1008 176
WIRE 1008 352 864 352
WIRE 1184 352 1184 176
WIRE 1184 352 1008 352
WIRE 1264 352 1264 176
WIRE 1264 352 1184 352
WIRE 1328 352 1328 240
WIRE 1328 352 1264 352
WIRE 1456 352 1328 352
WIRE -256 432 -256 208
WIRE 128 432 128 352
WIRE 320 432 320 352
WIRE 480 432 480 352
WIRE 864 432 864 352
WIRE 1008 432 1008 352
WIRE 1184 432 1184 352
WIRE 1328 432 1328 352
WIRE 688 560 688 352
WIRE -256 608 -256 496
WIRE -48 608 -256 608
WIRE 128 608 128 496
WIRE 128 608 32 608
WIRE 176 608 128 608
WIRE 320 608 320 496
WIRE 320 608 256 608
WIRE 480 608 480 496
WIRE 480 608 320 608
WIRE 624 608 480 608
WIRE 864 608 864 496
WIRE 864 608 752 608
WIRE 1008 608 1008 496
WIRE 1008 608 864 608
WIRE 1184 608 1184 496
WIRE 1184 608 1008 608
WIRE 1328 608 1328 512
WIRE 1328 608 1184 608
WIRE 480 736 480 608
WIRE 656 736 480 736
WIRE 864 736 864 608
WIRE 864 736 720 736
FLAG 1456 352 0
FLAG -912 -16 0
FLAG -912 -128 NOISE
FLAG -480 160 0
FLAG -432 160 NOISE
SYMBOL regulators 752 32 R0
SYMATTR InstName U1
SYMATTR SpiceModel LM7815
SYMBOL regulators 752 592 M180
SYMATTR InstName U2
SYMATTR SpiceModel LM7915
SYMBOL voltage -688 224 R0
WINDOW 123 0 0 Left 0
WINDOW 39 0 0 Left 0
SYMATTR InstName V1
SYMATTR Value SINE(0 25 60)
SYMBOL diode -240 176 R180
WINDOW 0 24 64 Left 2
WINDOW 3 24 0 Left 2
SYMATTR InstName D1
SYMBOL diode -240 496 R180
WINDOW 0 24 64 Left 2
WINDOW 3 24 0 Left 2
SYMATTR InstName D2
SYMBOL cap 112 112 R0
SYMATTR InstName C1
SYMATTR Value {Cin}
SYMBOL cap 112 432 R0
SYMATTR InstName C2
SYMATTR Value {Cin}
SYMBOL cap 304 112 R0
SYMATTR InstName C3
SYMATTR Value {Cin2}
SYMBOL cap 304 432 R0
SYMATTR InstName C4
SYMATTR Value {Cin2}
SYMBOL res 272 592 R90
WINDOW 0 0 56 VBottom 2
WINDOW 3 32 56 VTop 2
SYMATTR InstName R1
SYMATTR Value 3
SYMBOL res 272 0 R90
WINDOW 0 0 56 VBottom 2
WINDOW 3 32 56 VTop 2
SYMATTR InstName R2
SYMATTR Value 3
SYMBOL cap 464 112 R0
SYMATTR InstName C5
SYMATTR Value 100n
SYMBOL cap 464 432 R0
SYMATTR InstName C6
SYMATTR Value 100n
SYMBOL cap 848 112 R0
SYMATTR InstName C7
SYMATTR Value 100n
SYMBOL cap 848 432 R0
SYMATTR InstName C8
SYMATTR Value 100n
SYMBOL cap 992 112 R0
SYMATTR InstName C9
SYMATTR Value {Cout}
SYMBOL cap 992 432 R0
SYMATTR InstName C10
SYMATTR Value {Cout}
SYMBOL diode 1200 176 R180
WINDOW 0 24 64 Left 2
WINDOW 3 24 0 Left 2
SYMATTR InstName D5
SYMBOL diode 1200 496 R180
WINDOW 0 24 64 Left 2
WINDOW 3 24 0 Left 2
SYMATTR InstName D6
SYMBOL res 1312 144 R0
SYMATTR InstName R3
SYMATTR Value 84
SYMBOL res 1312 416 R0
SYMATTR InstName R4
SYMATTR Value 84
SYMBOL bv -912 -112 R0
SYMATTR InstName B1
SYMATTR Value V=(white(2e6*time/10000))/100
SYMBOL e -400 208 R90
SYMATTR InstName E1
SYMATTR Value 1
SYMBOL res 48 0 R90
WINDOW 0 0 56 VBottom 2
WINDOW 3 32 56 VTop 2
SYMATTR InstName R5
SYMATTR Value 1m
SYMBOL res 48 592 R90
WINDOW 0 0 56 VBottom 2
WINDOW 3 32 56 VTop 2
SYMATTR InstName R6
SYMATTR Value 1m
SYMBOL zener 1280 176 R180
WINDOW 0 24 64 Left 2
WINDOW 3 24 0 Left 2
SYMATTR InstName D7
SYMATTR Value BZX84C15L
SYMATTR Description Diode
SYMATTR Type diode
SYMBOL diode 704 -112 R90
WINDOW 0 0 32 VBottom 2
WINDOW 3 32 32 VTop 2
SYMATTR InstName D8
SYMBOL diode 656 752 R270
WINDOW 0 32 32 VTop 2
WINDOW 3 0 32 VBottom 2
SYMATTR InstName D9
TEXT -926 482 Left 2 !.tran 200ms
TEXT -928 520 Left 2 !.param Cin=470u Cin2=1000u
TEXT -928 568 Left 2 !.param Cout=10u
TEXT -672 176 Left 2 ;2A fuse
